5r7y_ligand_0
 OpenBabel06282217223D

 19 19  0  0  0  0  0  0  0  0999 V2000
    3.0642    1.7527   -2.3519 C   0  0  0  0  0  3  0  0  0  0  0  0
    1.0023    2.5292   -0.6613 C   0  0  0  0  0  3  0  0  0  0  0  0
   -0.0980   -3.0502    1.4494 C   0  0  0  0  0  2  0  0  0  0  0  0
   -1.5085   -1.9052    1.3727 S   0  0  0  0  0  0  0  0  0  0  0  0
   -2.7898   -2.5959    1.5317 O   0  0  0  0  0  0  0  0  0  0  0  0
   -1.5525   -1.0249    2.5303 O   0  0  0  0  0  0  0  0  0  0  0  0
   -1.5081   -1.0389   -0.0904 N   0  0  0  0  0  0  0  0  0  0  0  0
   -0.2575   -0.5568   -0.6255 C   0  0  0  0  0  2  0  0  0  0  0  0
   -0.4599    0.6641   -1.5123 C   0  0  0  0  0  2  0  0  0  0  0  0
    0.8422    1.4506   -1.5160 C   0  0  0  0  0  0  0  0  0  0  0  0
    1.8703    1.0613   -2.3573 C   0  0  0  0  0  3  0  0  0  0  0  0
    3.2322    2.8375   -1.5042 C   0  0  0  0  0  3  0  0  0  0  0  0
    2.1992    3.2308   -0.6597 C   0  0  0  0  0  3  0  0  0  0  0  0
   -2.8022   -0.8139   -0.6632 N   0  0  0  0  0  0  0  0  0  0  0  0
   -3.3294   -1.6893   -1.6100 C   0  0  0  0  0  0  0  0  0  0  0  0
   -3.7936    0.0045   -0.1661 C   0  0  0  0  0  1  0  0  0  0  0  0
   -2.5398   -2.6092   -2.2089 O   0  0  0  0  0  0  0  0  0  0  0  0
   -0.7683   -4.3008    1.8127 C   0  0  0  0  0  1  0  0  0  0  0  0
   -4.8741   -1.6213   -1.9817 C   0  0  0  0  0  1  0  0  0  0  0  0
  1 12  1  0  0  0  0
  2 13  1  0  0  0  0
  3 18  1  0  0  0  0
  4  3  1  0  0  0  0
  4  5  2  0  0  0  0
  4  6  2  0  0  0  0
  7  4  1  0  0  0  0
  8  7  1  0  0  0  0
  9  8  1  0  0  0  0
 10  9  1  0  0  0  0
 10  2  2  0  0  0  0
 11  1  2  0  0  0  0
 11 10  1  0  0  0  0
 12 13  2  0  0  0  0
 14 16  1  0  0  0  0
 14  7  1  0  0  0  0
 15 14  1  0  0  0  0
 17 15  2  0  0  0  0
 19 15  1  0  0  0  0
M  END
$$$$
